*INCLUDE, INPUT=Solid/all.msh
*INCLUDE, INPUT=Solid/fix1_beam.nam
*INCLUDE, INPUT=Solid/interface_beam.nam

*MATERIAL, Name=EL
*ELASTIC
12000000, 0.3
*density
1000
*SOLID SECTION, Elset=Eall, Material=EL

*AMPLITUDE,NAME=AMP1
0,0
1,1

**INCLUDE,INPUT=Solid/boundary.inp

*INITIAL CONTIONS, TYPE=STRESS
795, 1, 7177.842, 19388.41, 7969.876, 5946.661, 6.12E-13, 9.27E-13
795, 2, 3510.388, 18043.95, 6466.301, 1001.068, -1.56E-13, 2.51E-12
795, 3, 7177.842, 19388.41, 7969.876, 5946.661, 6.14E-13, 9.27E-13
795, 4, 3510.388, 18043.95, 6466.301, 1001.068, -1.56E-13, 2.50E-12
795, 5, -8142.212, -16258.17, -7320.116, 3658.806, 5.00E-13, -1.95E-13
795, 6, -11948.87, -17653.67, -8880.76, -1474.499, 1.56E-12, -1.88E-13
795, 7, -8142.212, -16258.17, -7320.116, 3658.806, 5.08E-13, -1.88E-13
795, 8, -11948.87, -17653.67, -8880.76, -1474.499, 1.56E-12, -1.88E-13
796, 1, 1582.306, 14949.47, 4959.533, 4620.092, 6.18E-12, 4.30E-12
796, 2, 1520.964, 15474.86, 5098.747, 612.5334, 8.39E-12, 4.69E-12
796, 3, 1582.306, 14949.47, 4959.533, 4620.092, 6.15E-12, 4.30E-12
796, 4, 1520.964, 15474.86, 5098.747, 612.5334, 8.44E-12, 4.71E-12
796, 5, -10792.6, -13872.03, -7399.388, 4094.585, 1.49E-12, -2.50E-13
796, 6, -10856.27, -13326.7, -7254.89, -65.08099, 8.37E-13, 1.06E-12
796, 7, -10792.6, -13872.03, -7399.388, 4094.585, 1.47E-12, -2.81E-13
796, 8, -10856.27, -13326.7, -7254.89, -65.08099, 9.15E-13, 9.77E-13
797, 1, 757.7353, 11675.82, 3730.066, 4317.788, 9.04E-12, 8.44E-12
797, 2, 451.9174, 12261.33, 3813.973, 1210.709, 1.19E-11, 5.56E-12
797, 3, 757.7353, 11675.82, 3730.066, 4317.788, 8.91E-12, 8.40E-12
797, 4, 451.9174, 12261.33, 3813.973, 1210.709, 1.20E-11, 5.56E-12
** ... 764 like lines cut


*STEP,NLGEOM,INC=100000000
*DYNAMIC
1.E-5, 20

*BOUNDARY
Nfix1,1,3

*CLOAD, AMPLITUDE=AMP1
Nsurface, 1, 0.0
Nsurface, 2, 0.0
Nsurface, 3, 0.0



*NODE FILE
U
*EL FILE
S
*END STEP
