*INCLUDE, INPUT=Solid/all.msh
*INCLUDE, INPUT=Solid/fix1_beam.nam
*INCLUDE, INPUT=Solid/interface_beam.nam

*MATERIAL, Name=EL
*ELASTIC
12000000, 0.3
*density
1000
*SOLID SECTION, Elset=Eall, Material=EL

** fix on the lower boundary from x to z.  
*BOUNDARY
Nfix1, 1, 3
** Nall, 1, 3
** fix on all nodes for translation in y-dir, rotation about x- and z-axis
*BOUNDARY
Nall, 3

*STEP, NLGEOM, INC=1000000
*STATIC
1.E-3, 1

*RESTART,WRITE

*INCLUDE,INPUT=Solid/boundary.inp

*NODE PRINT, NSET=Nall, FREQUENCY=1000
U
*NODE FILE
U
*EL FILE
S,E,ENER
*END STEP